Cyclolinopeptide E
C51H76N8O9S
222527-67-5 Copyright (C) 2022 ACS
 71 74  0  0  0  0  0  0  0  0999 V2000
    6.9302    9.3360    0.0000 O   0  0  0  0  0  0  0  0  0  0  0  0
    7.7002   10.6697    0.0000 O   0  0  0  0  0  0  0  0  0  0  0  0
    3.0801    8.0023    0.0000 C   0  0  0  0  0  0  0  0  0  0  0  0
    8.8416   14.8247    0.0000 C   0  0  0  0  0  0  0  0  0  0  0  0
    7.3541   15.2232    0.0000 C   0  0  0  0  0  0  0  0  0  0  0  0
    6.2650   14.1343    0.0000 C   0  0  0  0  0  0  0  0  0  0  0  0
    6.9554   16.7108    0.0000 C   0  0  0  0  0  0  0  0  0  0  0  0
    7.7002    8.0023    0.0000 O   0  0  0  0  0  0  0  0  0  0  0  0
    9.2402   16.0045    0.0000 O   0  0  0  0  0  0  0  0  0  0  0  0
    6.9302    4.0012    0.0000 C   0  0  0  0  0  0  0  0  0  0  0  0
    5.3901    4.0012    0.0000 C   0  0  0  0  0  0  0  0  0  0  0  0
    7.7002    2.6675    0.0000 C   0  0  0  0  0  0  0  0  0  0  0  0
   13.0903   14.6708    0.0000 C   0  0  0  0  0  0  0  0  0  0  0  0
    9.2402    2.6675    0.0000 O   0  0  0  0  0  0  0  0  0  0  0  0
   14.6303   14.6708    0.0000 O   0  0  0  0  0  0  0  0  0  0  0  0
   12.3203    2.6675    0.0000 C   0  0  0  0  0  0  0  0  0  0  0  0
   11.5503    1.3337    0.0000 C   0  0  0  0  0  0  0  0  0  0  0  0
   12.3203    0.0000    0.0000 C   0  0  0  0  0  0  0  0  0  0  0  0
   10.0102    1.3337    0.0000 C   0  0  0  0  0  0  0  0  0  0  0  0
   12.3728   11.0682    0.0000 C   0  0  0  0  0  0  0  0  0  0  0  0
   11.2838    9.9793    0.0000 C   0  0  0  0  0  0  0  0  0  0  0  0
   11.9742   12.5559    0.0000 C   0  0  0  0  0  0  0  0  0  0  0  0
    9.7962   10.3780    0.0000 C   0  0  0  0  0  0  0  0  0  0  0  0
   14.6303    4.0012    0.0000 O   0  0  0  0  0  0  0  0  0  0  0  0
   16.1704    9.3360    0.0000 O   0  0  0  0  0  0  0  0  0  0  0  0
   16.1704    6.6685    0.0000 C   0  0  0  0  0  0  0  0  0  0  0  0
   16.9404    5.3348    0.0000 C   0  0  0  0  0  0  0  0  0  0  0  0
   18.4804    5.3348    0.0000 S   0  0  0  0  0  4  0  0  0  0  0  0
   19.2504    4.0012    0.0000 C   0  0  0  0  0  0  0  0  0  0  0  0
   19.2504    6.6685    0.0000 O   0  0  0  0  0  0  0  0  0  0  0  0
    4.6201   10.6697    0.0000 N   0  0  0  0  0  0  0  0  0  0  0  0
    5.3901   12.0035    0.0000 C   0  0  0  0  0  0  0  0  0  0  0  0
    5.3901    9.3360    0.0000 C   0  0  0  0  0  0  0  0  0  0  0  0
    3.1138   10.9898    0.0000 C   0  0  0  0  0  0  0  0  0  0  0  0
    6.9302   12.0035    0.0000 C   0  0  0  0  0  0  0  0  0  0  0  0
    4.3597   13.1479    0.0000 C   0  0  0  0  0  0  0  0  0  0  0  0
    4.6201    8.0023    0.0000 C   0  0  0  0  0  0  0  0  0  0  0  0
    2.9527   12.5216    0.0000 C   0  0  0  0  0  0  0  0  0  0  0  0
    7.7002   13.3372    0.0000 N   0  0  0  0  0  0  0  0  0  0  0  0
    5.3901    6.6685    0.0000 N   0  0  0  0  0  0  0  0  0  0  0  0
    9.2402   13.3372    0.0000 C   0  0  0  0  0  0  0  0  0  0  0  0
    6.9302    6.6685    0.0000 C   0  0  0  0  0  0  0  0  0  0  0  0
   10.0102   14.6708    0.0000 C   0  0  0  0  0  0  0  0  0  0  0  0
    7.7002    5.3348    0.0000 C   0  0  0  0  0  0  0  0  0  0  0  0
   11.5503   14.6708    0.0000 N   0  0  0  0  0  0  0  0  0  0  0  0
    9.2402    5.3348    0.0000 N   0  0  0  0  0  0  0  0  0  0  0  0
   12.3203   13.3372    0.0000 C   0  0  0  0  0  0  0  0  0  0  0  0
   10.0102    4.0012    0.0000 C   0  0  0  0  0  0  0  0  0  0  0  0
   13.8603   13.3372    0.0000 C   0  0  0  0  0  0  0  0  0  0  0  0
   11.5503    4.0012    0.0000 C   0  0  0  0  0  0  0  0  0  0  0  0
   14.6303   12.0035    0.0000 N   0  0  0  0  0  0  0  0  0  0  0  0
   12.3203    5.3348    0.0000 N   0  0  0  0  0  0  0  0  0  0  0  0
   13.8603   10.6697    0.0000 C   0  0  0  0  0  0  0  0  0  0  0  0
   13.8603    5.3348    0.0000 C   0  0  0  0  0  0  0  0  0  0  0  0
   14.6303    9.3360    0.0000 C   0  0  0  0  0  0  0  0  0  0  0  0
   14.6303    6.6685    0.0000 C   0  0  0  0  0  0  0  0  0  0  0  0
   13.8603    8.0023    0.0000 N   0  0  0  0  0  0  0  0  0  0  0  0
    2.3101    6.6685    0.0000 C   0  0  0  0  0  0  0  0  0  0  0  0
    3.0801    5.3348    0.0000 C   0  0  0  0  0  0  0  0  0  0  0  0
    0.7700    6.6685    0.0000 C   0  0  0  0  0  0  0  0  0  0  0  0
    2.3101    4.0012    0.0000 C   0  0  0  0  0  0  0  0  0  0  0  0
    0.0000    5.3348    0.0000 C   0  0  0  0  0  0  0  0  0  0  0  0
    0.7700    4.0012    0.0000 C   0  0  0  0  0  0  0  0  0  0  0  0
   12.3203   16.0045    0.0000 C   0  0  0  0  0  0  0  0  0  0  0  0
   10.7802   16.0045    0.0000 C   0  0  0  0  0  0  0  0  0  0  0  0
   13.0903   17.3383    0.0000 C   0  0  0  0  0  0  0  0  0  0  0  0
   10.0102   17.3383    0.0000 C   0  0  0  0  0  0  0  0  0  0  0  0
   12.3203   18.6720    0.0000 C   0  0  0  0  0  0  0  0  0  0  0  0
   10.7802   18.6720    0.0000 C   0  0  0  0  0  0  0  0  0  0  0  0
    5.3632   13.5432    0.0000 H   0  0  0  0  0  0  0  0  0  0  0  0
   12.6806    9.6797    0.0000 H   0  0  0  0  0  0  0  0  0  0  0  0
  1 33  2  0  0  0  0
  2 35  2  0  0  0  0
 37  3  1  1  0  0  0
  3 58  1  0  0  0  0
  4  5  1  0  0  0  0
  4 41  1  0  0  0  0
  5  6  1  0  0  0  0
  5  7  1  0  0  0  0
  8 42  2  0  0  0  0
  9 43  2  0  0  0  0
 10 11  1  0  0  0  0
 10 12  1  0  0  0  0
 44 10  1  1  0  0  0
 13 47  1  0  0  0  0
 13 64  1  0  0  0  0
 14 48  2  0  0  0  0
 15 49  2  0  0  0  0
 16 17  1  0  0  0  0
 50 16  1  1  0  0  0
 17 18  1  0  0  0  0
 17 19  1  0  0  0  0
 20 21  1  0  0  0  0
 20 22  1  6  0  0  0
 20 53  1  0  0  0  0
 21 23  1  0  0  0  0
 24 54  2  0  0  0  0
 25 55  2  0  0  0  0
 26 27  1  0  0  0  0
 56 26  1  1  0  0  0
 27 28  1  0  0  0  0
 28 29  1  0  0  0  0
 28 30  2  0  0  0  0
 31 32  1  0  0  0  0
 31 33  1  0  0  0  0
 31 34  1  0  0  0  0
 32 35  1  0  0  0  0
 32 36  1  0  0  0  0
 32 70  1  6  0  0  0
 33 37  1  0  0  0  0
 34 38  1  0  0  0  0
 35 39  1  0  0  0  0
 36 38  1  0  0  0  0
 37 40  1  0  0  0  0
 39 41  1  0  0  0  0
 40 42  1  0  0  0  0
 41 43  1  1  0  0  0
 42 44  1  0  0  0  0
 43 45  1  0  0  0  0
 44 46  1  0  0  0  0
 47 45  1  1  0  0  0
 46 48  1  0  0  0  0
 47 49  1  0  0  0  0
 48 50  1  0  0  0  0
 49 51  1  0  0  0  0
 50 52  1  0  0  0  0
 51 53  1  0  0  0  0
 52 54  1  0  0  0  0
 53 55  1  0  0  0  0
 53 71  1  1  0  0  0
 54 56  1  0  0  0  0
 55 57  1  0  0  0  0
 56 57  1  0  0  0  0
 58 59  2  0  0  0  0
 58 60  1  0  0  0  0
 59 61  1  0  0  0  0
 60 62  2  0  0  0  0
 61 63  2  0  0  0  0
 62 63  1  0  0  0  0
 64 65  2  0  0  0  0
 64 66  1  0  0  0  0
 65 67  1  0  0  0  0
 66 68  2  0  0  0  0
 67 69  2  0  0  0  0
 68 69  1  0  0  0  0
M  END
