Cyclolinopeptide A
C57H85N9O9
33302-55-5 Copyright (C) 2022 ACS
 79 83  0  0  1  0  0  0  0  0999 V2000
   10.8676   12.5505    0.0000 O   0  0  0  0  0  0  0  0  0  0  0  0
   12.7720   11.8575    0.0000 O   0  0  0  0  0  0  0  0  0  0  0  0
   16.0719   14.3708    0.0000 C   0  0  0  0  0  0  0  0  0  0  0  0
   15.3019   15.7046    0.0000 C   0  0  0  0  0  0  0  0  0  0  0  0
   17.6119   14.3708    0.0000 C   0  0  0  0  0  0  0  0  0  0  0  0
    8.9633   11.8575    0.0000 O   0  0  0  0  0  0  0  0  0  0  0  0
   13.7853   10.1024    0.0000 O   0  0  0  0  0  0  0  0  0  0  0  0
   17.9287    9.9067    0.0000 C   0  0  0  0  0  0  0  0  0  0  0  0
   19.1085    8.9168    0.0000 C   0  0  0  0  0  0  0  0  0  0  0  0
   20.5556    9.4434    0.0000 C   0  0  0  0  0  0  0  0  0  0  0  0
   18.8410    7.4002    0.0000 C   0  0  0  0  0  0  0  0  0  0  0  0
    4.1233   11.7035    0.0000 C   0  0  0  0  0  0  0  0  0  0  0  0
    7.9499   10.1024    0.0000 O   0  0  0  0  0  0  0  0  0  0  0  0
   13.4334    8.1066    0.0000 O   0  0  0  0  0  0  0  0  0  0  0  0
   15.8046    4.4863    0.0000 C   0  0  1  0  0  0  0  0  0  0  0  0
   17.3446    4.4863    0.0000 C   0  0  0  0  0  0  0  0  0  0  0  0
   15.0346    3.1527    0.0000 C   0  0  0  0  0  0  0  0  0  0  0  0
   18.1146    3.1527    0.0000 C   0  0  0  0  0  0  0  0  0  0  0  0
    4.3414    6.8735    0.0000 C   0  0  0  0  0  0  0  0  0  0  0  0
    8.3020    8.1066    0.0000 O   0  0  0  0  0  0  0  0  0  0  0  0
   11.8809    6.8040    0.0000 O   0  0  0  0  0  0  0  0  0  0  0  0
   11.3703    2.5065    0.0000 C   0  0  1  0  0  0  0  0  0  0  0  0
   12.5499    1.5166    0.0000 C   0  0  0  0  0  0  0  0  0  0  0  0
    9.9231    1.9798    0.0000 C   0  0  0  0  0  0  0  0  0  0  0  0
   12.2826    0.0000    0.0000 C   0  0  0  0  0  0  0  0  0  0  0  0
    7.6131    3.3135    0.0000 C   0  0  0  0  0  0  0  0  0  0  0  0
    6.1660    2.7868    0.0000 C   0  0  0  0  0  0  0  0  0  0  0  0
    4.9862    3.7767    0.0000 C   0  0  0  0  0  0  0  0  0  0  0  0
    5.8985    1.2702    0.0000 C   0  0  0  0  0  0  0  0  0  0  0  0
    9.8543    6.8040    0.0000 O   0  0  0  0  0  0  0  0  0  0  0  0
   12.0474   15.0804    0.0000 C   0  0  1  0  0  0  0  0  0  0  0  0
   13.4946   14.5538    0.0000 N   0  0  0  0  0  0  0  0  0  0  0  0
   10.8676   14.0905    0.0000 C   0  0  0  0  0  0  0  0  0  0  0  0
   12.1012   16.6195    0.0000 C   0  0  0  0  0  0  0  0  0  0  0  0
   13.7619   13.0372    0.0000 C   0  0  0  0  0  0  0  0  0  0  0  0
   14.4426   15.7673    0.0000 C   0  0  0  0  0  0  0  0  0  0  0  0
    9.6880   15.0804    0.0000 N   0  0  0  0  0  0  0  0  0  0  0  0
   13.5814   17.0441    0.0000 C   0  0  0  0  0  0  0  0  0  0  0  0
   15.3019   13.0372    0.0000 C   0  0  2  0  0  0  0  0  0  0  0  0
    8.2408   14.5538    0.0000 C   0  0  1  0  0  0  0  0  0  0  0  0
    9.6342   16.6195    0.0000 C   0  0  0  0  0  0  0  0  0  0  0  0
   16.0719   11.7035    0.0000 N   0  0  0  0  0  0  0  0  0  0  0  0
    7.9733   13.0372    0.0000 C   0  0  0  0  0  0  0  0  0  0  0  0
    7.2927   15.7673    0.0000 C   0  0  0  0  0  0  0  0  0  0  0  0
    8.1538   17.0441    0.0000 C   0  0  0  0  0  0  0  0  0  0  0  0
   15.3019   10.3699    0.0000 C   0  0  0  0  0  0  0  0  0  0  0  0
    6.4333   13.0372    0.0000 N   0  0  0  0  0  0  0  0  0  0  0  0
   16.4817    9.3800    0.0000 C   0  0  2  0  0  0  0  0  0  0  0  0
    5.6633   11.7035    0.0000 C   0  0  1  0  0  0  0  0  0  0  0  0
   16.2142    7.8634    0.0000 N   0  0  0  0  0  0  0  0  0  0  0  0
    6.4333   10.3699    0.0000 C   0  0  0  0  0  0  0  0  0  0  0  0
   14.7671    7.3366    0.0000 C   0  0  0  0  0  0  0  0  0  0  0  0
    5.2537    9.3800    0.0000 N   0  0  0  0  0  0  0  0  0  0  0  0
   15.0346    5.8200    0.0000 C   0  0  2  0  0  0  0  0  0  0  0  0
    5.5211    7.8634    0.0000 C   0  0  1  0  0  0  0  0  0  0  0  0
   13.8548    4.8301    0.0000 N   0  0  0  0  0  0  0  0  0  0  0  0
    6.9682    7.3366    0.0000 C   0  0  0  0  0  0  0  0  0  0  0  0
   12.4076    5.3569    0.0000 C   0  0  0  0  0  0  0  0  0  0  0  0
    6.7008    5.8200    0.0000 N   0  0  0  0  0  0  0  0  0  0  0  0
   11.6376    4.0231    0.0000 C   0  0  2  0  0  0  0  0  0  0  0  0
    7.8805    4.8301    0.0000 C   0  0  1  0  0  0  0  0  0  0  0  0
   10.0976    4.0231    0.0000 N   0  0  0  0  0  0  0  0  0  0  0  0
    9.3276    5.3569    0.0000 C   0  0  0  0  0  0  0  0  0  0  0  0
    3.3534   13.0372    0.0000 C   0  0  0  0  0  0  0  0  0  0  0  0
    1.8134   13.0372    0.0000 C   0  0  0  0  0  0  0  0  0  0  0  0
    4.1233   14.3708    0.0000 C   0  0  0  0  0  0  0  0  0  0  0  0
    1.0434   14.3708    0.0000 C   0  0  0  0  0  0  0  0  0  0  0  0
    3.3534   15.7046    0.0000 C   0  0  0  0  0  0  0  0  0  0  0  0
    1.8134   15.7046    0.0000 C   0  0  0  0  0  0  0  0  0  0  0  0
    2.8943    7.4002    0.0000 C   0  0  0  0  0  0  0  0  0  0  0  0
    1.7146    6.4102    0.0000 C   0  0  0  0  0  0  0  0  0  0  0  0
    2.6269    8.9168    0.0000 C   0  0  0  0  0  0  0  0  0  0  0  0
    0.2675    6.9369    0.0000 C   0  0  0  0  0  0  0  0  0  0  0  0
    1.1798    9.4434    0.0000 C   0  0  0  0  0  0  0  0  0  0  0  0
    0.0000    8.4535    0.0000 C   0  0  0  0  0  0  0  0  0  0  0  0
   10.6633   15.7556    0.0000 H   0  0  0  0  0  0  0  0  0  0  0  0
    6.7466   14.1812    0.0000 H   0  0  0  0  0  0  0  0  0  0  0  0
   16.4817    6.3468    0.0000 H   0  0  0  0  0  0  0  0  0  0  0  0
   13.0848    3.4964    0.0000 H   0  0  0  0  0  0  0  0  0  0  0  0
  1 33  2  0  0  0  0
  2 35  2  0  0  0  0
  3  4  1  0  0  0  0
  3  5  1  0  0  0  0
 39  3  1  6  0  0  0
  6 43  2  0  0  0  0
  7 46  2  0  0  0  0
  8  9  1  0  0  0  0
 48  8  1  6  0  0  0
  9 10  1  0  0  0  0
  9 11  1  0  0  0  0
 49 12  1  6  0  0  0
 12 64  1  0  0  0  0
 13 51  2  0  0  0  0
 14 52  2  0  0  0  0
 15 16  1  0  0  0  0
 15 17  1  6  0  0  0
 15 54  1  0  0  0  0
 16 18  1  0  0  0  0
 55 19  1  6  0  0  0
 19 70  1  0  0  0  0
 20 57  2  0  0  0  0
 21 58  2  0  0  0  0
 22 23  1  0  0  0  0
 22 24  1  6  0  0  0
 22 60  1  0  0  0  0
 23 25  1  0  0  0  0
 26 27  1  0  0  0  0
 61 26  1  6  0  0  0
 27 28  1  0  0  0  0
 27 29  1  0  0  0  0
 30 63  2  0  0  0  0
 31 32  1  0  0  0  0
 31 33  1  0  0  0  0
 31 34  1  0  0  0  0
 31 76  1  1  0  0  0
 32 35  1  0  0  0  0
 32 36  1  0  0  0  0
 33 37  1  0  0  0  0
 34 38  1  0  0  0  0
 35 39  1  0  0  0  0
 36 38  1  0  0  0  0
 37 40  1  0  0  0  0
 37 41  1  0  0  0  0
 39 42  1  0  0  0  0
 40 43  1  0  0  0  0
 40 44  1  0  0  0  0
 40 77  1  1  0  0  0
 41 45  1  0  0  0  0
 42 46  1  0  0  0  0
 43 47  1  0  0  0  0
 44 45  1  0  0  0  0
 46 48  1  0  0  0  0
 47 49  1  0  0  0  0
 48 50  1  0  0  0  0
 49 51  1  0  0  0  0
 50 52  1  0  0  0  0
 51 53  1  0  0  0  0
 52 54  1  0  0  0  0
 53 55  1  0  0  0  0
 54 56  1  0  0  0  0
 54 78  1  1  0  0  0
 55 57  1  0  0  0  0
 56 58  1  0  0  0  0
 57 59  1  0  0  0  0
 58 60  1  0  0  0  0
 59 61  1  0  0  0  0
 60 62  1  0  0  0  0
 60 79  1  1  0  0  0
 61 63  1  0  0  0  0
 62 63  1  0  0  0  0
 64 65  2  0  0  0  0
 64 66  1  0  0  0  0
 65 67  1  0  0  0  0
 66 68  2  0  0  0  0
 67 69  2  0  0  0  0
 68 69  1  0  0  0  0
 70 71  2  0  0  0  0
 70 72  1  0  0  0  0
 71 73  1  0  0  0  0
 72 74  2  0  0  0  0
 73 75  2  0  0  0  0
 74 75  1  0  0  0  0
M  END
