@<TRIPOS>MOLECULE
Unnamed
160 164 1 0 0
SMALL
USER_CHARGES


@<TRIPOS>ATOM
      1 O           3.1279    2.7228    1.0578 O.2       1     ****    0.0000
      2 O           2.7202    5.1208   -0.6554 O.2       1     ****    0.0000
      3 C           0.5035    5.8239    2.0037 C.3       1     ****    0.0000
      4 C          -0.0620    4.4190    1.7629 C.3       1     ****    0.0000
      5 C          -0.6466    6.7838    2.3606 C.3       1     ****    0.0000
      6 O           4.3840    0.5861    2.6426 O.2       1     ****    0.0000
      7 O          -0.0722    8.5726   -0.2860 O.2       1     ****    0.0000
      8 C          -2.2711    7.4391   -2.1956 C.3       1     ****    0.0000
      9 C          -2.8955    8.7034   -1.5636 C.3       1     ****    0.0000
     10 C          -2.5172    9.9956   -2.3070 C.3       1     ****    0.0000
     11 C          -4.4305    8.5627   -1.5312 C.3       1     ****    0.0000
     12 C           4.7238   -3.0710    0.5586 C.3       1     ****    0.0000
     13 O           2.1199   -3.6298   -0.4720 O.2       1     ****    0.0000
     14 O          -0.0431    4.9696   -4.8316 O.2       1     ****    0.0000
     15 C          -1.8236    4.0009   -1.8140 C.3       1     ****    0.0000
     16 C          -1.0002    2.7402   -1.4798 C.3       1     ****    0.0000
     17 C          -3.2795    3.7509   -1.3601 C.3       1     ****    0.0000
     18 C           0.5218    2.8975   -1.5517 C.3       1     ****    0.0000
     19 C          -0.8377   -0.8652    0.3792 C.3       1     ****    0.0000
     20 O           0.4634   -1.3893   -2.8524 O.2       1     ****    0.0000
     21 O          -0.4789    2.1741   -4.3705 O.2       1     ****    0.0000
     22 C          -3.7664    1.8688   -6.1596 C.3       1     ****    0.0000
     23 C          -4.8840    1.7380   -5.1050 C.3       1     ****    0.0000
     24 C          -4.1022    1.0422   -7.4177 C.3       1     ****    0.0000
     25 C          -6.2193    2.3687   -5.5262 C.3       1     ****    0.0000
     26 C          -3.4524   -2.7004   -3.8152 C.3       1     ****    0.0000
     27 C          -4.1735   -2.6474   -5.1766 C.3       1     ****    0.0000
     28 C          -3.2840   -3.1229   -6.3370 C.3       1     ****    0.0000
     29 C          -5.4593   -3.4929   -5.1278 C.3       1     ****    0.0000
     30 O          -3.0128    0.3665   -3.1171 O.2       1     ****    0.0000
     31 C           4.7219    4.5135    1.2070 C.3       1     ****    0.0000
     32 N           3.5903    5.4222    1.4022 N.am      1     ****    0.0000
     33 C           4.2771    3.0704    0.9325 C.2       1     ****    0.0000
     34 C           5.5687    4.6271    2.4905 C.3       1     ****    0.0000
     35 C           2.6127    5.5865    0.4546 C.2       1     ****    0.0000
     36 C           3.8109    6.2486    2.5801 C.3       1     ****    0.0000
     37 N           5.2572    2.1865    0.5497 N.am      1     ****    0.0000
     38 C           4.6400    5.3337    3.4869 C.3       1     ****    0.0000
     39 C           1.3536    6.3784    0.8331 C.3       1     ****    0.0000
     40 C           4.9975    0.7623    0.3263 C.3       1     ****    0.0000
     41 C           6.6505    2.5119    0.2715 C.3       1     ****    0.0000
     42 N           0.5536    6.4103   -0.4023 N.am      1     ****    0.0000
     43 C           4.3191    0.1121    1.5361 C.2       1     ****    0.0000
     44 C           6.3813    0.1483    0.0530 C.3       1     ****    0.0000
     45 C           7.1620    1.3205   -0.5492 C.3       1     ****    0.0000
     46 C          -0.0665    7.5245   -0.8838 C.2       1     ****    0.0000
     47 N           3.5935   -1.0303    1.3278 N.am      1     ****    0.0000
     48 C          -0.7361    7.3432   -2.2496 C.3       1     ****    0.0000
     49 C           3.7307   -1.9523    0.1834 C.3       1     ****    0.0000
     50 N          -0.0658    6.3079   -3.0703 N.am      1     ****    0.0000
     51 C           2.3570   -2.4716   -0.2329 C.2       1     ****    0.0000
     52 C          -0.5905    5.2653   -3.7982 C.2       1     ****    0.0000
     53 N           1.3981   -1.5028   -0.2841 N.am      1     ****    0.0000
     54 C          -1.8174    4.4983   -3.2808 C.3       1     ****    0.0000
     55 C          -0.0201   -1.7920   -0.5384 C.3       1     ****    0.0000
     56 N          -2.3261    3.4991   -4.2416 N.am      1     ****    0.0000
     57 C          -0.3610   -1.6698   -2.0176 C.2       1     ****    0.0000
     58 C          -1.6148    2.4208   -4.6915 C.2       1     ****    0.0000
     59 N          -1.6716   -1.9166   -2.3162 N.am      1     ****    0.0000
     60 C          -2.3569    1.4862   -5.6490 C.3       1     ****    0.0000
     61 C          -2.2080   -1.8045   -3.6816 C.3       1     ****    0.0000
     62 N          -2.2102    0.0881   -5.2212 N.am      1     ****    0.0000
     63 C          -2.5272   -0.3409   -3.9630 C.2       1     ****    0.0000
     64 C           5.0324   -4.0558   -0.5526 C.ar      1     ****    0.0000
     65 C           4.7966   -5.3716   -0.3938 C.ar      1     ****    0.0000
     66 C           5.5533   -3.6437   -1.7227 C.ar      1     ****    0.0000
     67 C           5.0638   -6.2490   -1.3737 C.ar      1     ****    0.0000
     68 C           5.8241   -4.5138   -2.7080 C.ar      1     ****    0.0000
     69 C           5.5783   -5.8210   -2.5359 C.ar      1     ****    0.0000
     70 C          -0.0360   -0.6413    1.6484 C.ar      1     ****    0.0000
     71 C           0.2134   -1.6615    2.4889 C.ar      1     ****    0.0000
     72 C           0.5110    0.5566    1.9193 C.ar      1     ****    0.0000
     73 C           0.9826   -1.4920    3.5749 C.ar      1     ****    0.0000
     74 C           1.2668    0.7387    3.0126 C.ar      1     ****    0.0000
     75 C           1.5082   -0.2876    3.8413 C.ar      1     ****    0.0000
     76 H           5.2917    4.8864    0.3243 H         1     ****    0.0000
     77 H           4.3381    0.7057   -0.5710 H         1     ****    0.0000
     78 H          -2.6200    5.2653   -3.3680 H         1     ****    0.0000
     79 H          -1.6984    1.5655   -6.5539 H         1     ****    0.0000
     80 H           1.1298    5.7327    2.9219 H         1     ****    0.0000
     81 H           0.7506    3.6969    1.5398 H         1     ****    0.0000
     82 H          -0.5982    4.0336    2.6598 H         1     ****    0.0000
     83 H          -0.7889    4.4152    0.9242 H         1     ****    0.0000
     84 H          -0.2660    7.8077    2.5780 H         1     ****    0.0000
     85 H          -1.1956    6.4377    3.2661 H         1     ****    0.0000
     86 H          -1.3896    6.8579    1.5350 H         1     ****    0.0000
     87 H          -2.6540    6.5845   -1.5958 H         1     ****    0.0000
     88 H          -2.6714    7.3766   -3.2356 H         1     ****    0.0000
     89 H          -2.5612    8.7903   -0.5002 H         1     ****    0.0000
     90 H          -3.0393   10.8769   -1.8696 H         1     ****    0.0000
     91 H          -1.4283   10.2134   -2.2459 H         1     ****    0.0000
     92 H          -2.7964    9.9357   -3.3833 H         1     ****    0.0000
     93 H          -4.9080    9.4407   -1.0391 H         1     ****    0.0000
     94 H          -4.7451    7.6574   -0.9632 H         1     ****    0.0000
     95 H          -4.8499    8.4813   -2.5597 H         1     ****    0.0000
     96 H           5.6926   -2.6193    0.8778 H         1     ****    0.0000
     97 H           4.3268   -3.5987    1.4572 H         1     ****    0.0000
     98 H          -1.4162    4.8177   -1.1735 H         1     ****    0.0000
     99 H          -1.2378    2.4239   -0.4356 H         1     ****    0.0000
    100 H          -1.3291    1.8861   -2.1069 H         1     ****    0.0000
    101 H          -3.9337    4.6360   -1.5243 H         1     ****    0.0000
    102 H          -3.3344    3.5161   -0.2726 H         1     ****    0.0000
    103 H          -3.7305    2.8962   -1.9123 H         1     ****    0.0000
    104 H           1.0336    1.9122   -1.4528 H         1     ****    0.0000
    105 H           0.8711    3.3745   -2.4913 H         1     ****    0.0000
    106 H           0.8808    3.5319   -0.7175 H         1     ****    0.0000
    107 H          -1.0146    0.1007   -0.1452 H         1     ****    0.0000
    108 H          -1.8388   -1.2935    0.6153 H         1     ****    0.0000
    109 H          -3.7231    2.9420   -6.4771 H         1     ****    0.0000
    110 H          -5.0544    0.6633   -4.8637 H         1     ****    0.0000
    111 H          -4.5736    2.2407   -4.1603 H         1     ****    0.0000
    112 H          -3.3147    1.1432   -8.1986 H         1     ****    0.0000
    113 H          -5.0524    1.3709   -7.8932 H         1     ****    0.0000
    114 H          -4.1991   -0.0402   -7.1780 H         1     ****    0.0000
    115 H          -6.9565    2.3290   -4.6911 H         1     ****    0.0000
    116 H          -6.0886    3.4387   -5.8070 H         1     ****    0.0000
    117 H          -6.6807    1.8366   -6.3875 H         1     ****    0.0000
    118 H          -4.1750   -2.3999   -3.0183 H         1     ****    0.0000
    119 H          -3.1611   -3.7564   -3.6012 H         1     ****    0.0000
    120 H          -4.4806   -1.5918   -5.3776 H         1     ****    0.0000
    121 H          -3.8440   -3.1157   -7.2998 H         1     ****    0.0000
    122 H          -2.3979   -2.4667   -6.4819 H         1     ****    0.0000
    123 H          -2.9184   -4.1600   -6.1625 H         1     ****    0.0000
    124 H          -6.0195   -3.4329   -6.0888 H         1     ****    0.0000
    125 H          -6.1460   -3.1415   -4.3241 H         1     ****    0.0000
    126 H          -5.2282   -4.5651   -4.9350 H         1     ****    0.0000
    127 H           6.4642    5.2655    2.2992 H         1     ****    0.0000
    128 H           5.9160    3.6491    2.8924 H         1     ****    0.0000
    129 H           2.9019    6.6083    3.0986 H         1     ****    0.0000
    130 H           4.4044    7.1440    2.2800 H         1     ****    0.0000
    131 H           3.9685    4.5836    3.9707 H         1     ****    0.0000
    132 H           5.1899    5.8869    4.2815 H         1     ****    0.0000
    133 H           1.7214    7.4020    1.0801 H         1     ****    0.0000
    134 H           6.7736    3.4475   -0.3177 H         1     ****    0.0000
    135 H           7.2160    2.5914    1.2284 H         1     ****    0.0000
    136 H           0.5607    5.5567   -0.9625 H         1     ****    0.0000
    137 H           6.3584   -0.7278   -0.6302 H         1     ****    0.0000
    138 H           6.8621   -0.1594    1.0119 H         1     ****    0.0000
    139 H           8.2661    1.1893   -0.4882 H         1     ****    0.0000
    140 H           6.8757    1.4442   -1.6216 H         1     ****    0.0000
    141 H           3.0056   -1.3068    2.1194 H         1     ****    0.0000
    142 H          -0.4275    8.2739   -2.7925 H         1     ****    0.0000
    143 H           4.0913   -1.4175   -0.7222 H         1     ****    0.0000
    144 H           0.9062    6.5002   -3.3178 H         1     ****    0.0000
    145 H           1.6588   -0.5329   -0.1012 H         1     ****    0.0000
    146 H          -0.2500   -2.8451   -0.2462 H         1     ****    0.0000
    147 H          -3.2926    3.5948   -4.5508 H         1     ****    0.0000
    148 H          -2.3269   -2.0658   -1.5496 H         1     ****    0.0000
    149 H          -1.4379   -2.1587   -4.4057 H         1     ****    0.0000
    150 H          -1.8345   -0.5863   -5.8868 H         1     ****    0.0000
    151 H           4.3727   -5.7471    0.5522 H         1     ****    0.0000
    152 H           5.7678   -2.5762   -1.8875 H         1     ****    0.0000
    153 H           4.8602   -7.3227   -1.2243 H         1     ****    0.0000
    154 H           6.2502   -4.1549   -3.6600 H         1     ****    0.0000
    155 H           5.7995   -6.5389   -3.3432 H         1     ****    0.0000
    156 H          -0.2021   -2.6603    2.2764 H         1     ****    0.0000
    157 H           0.3499    1.4022    1.2327 H         1     ****    0.0000
    158 H           1.1857   -2.3427    4.2466 H         1     ****    0.0000
    159 H           1.7043    1.7289    3.2234 H         1     ****    0.0000
    160 H           2.1412   -0.1434    4.7326 H         1     ****    0.0000
@<TRIPOS>BOND
     1     1    33     2
     2     2    35     2
     3     3     4     1
     4     3     5     1
     5     3    39     1
     6     3    80     1
     7     4    81     1
     8     4    82     1
     9     4    83     1
    10     5    84     1
    11     5    85     1
    12     5    86     1
    13     6    43     2
    14     7    46     2
    15     8     9     1
    16     8    48     1
    17     8    87     1
    18     8    88     1
    19     9    10     1
    20     9    11     1
    21     9    89     1
    22    10    90     1
    23    10    91     1
    24    10    92     1
    25    11    93     1
    26    11    94     1
    27    11    95     1
    28    12    49     1
    29    12    64     1
    30    12    96     1
    31    12    97     1
    32    13    51     2
    33    14    52     2
    34    15    16     1
    35    15    17     1
    36    15    54     1
    37    15    98     1
    38    16    18     1
    39    16    99     1
    40    16   100     1
    41    17   101     1
    42    17   102     1
    43    17   103     1
    44    18   104     1
    45    18   105     1
    46    18   106     1
    47    19    55     1
    48    19    70     1
    49    19   107     1
    50    19   108     1
    51    20    57     2
    52    21    58     2
    53    22    23     1
    54    22    24     1
    55    22    60     1
    56    22   109     1
    57    23    25     1
    58    23   110     1
    59    23   111     1
    60    24   112     1
    61    24   113     1
    62    24   114     1
    63    25   115     1
    64    25   116     1
    65    25   117     1
    66    26    27     1
    67    26    61     1
    68    26   118     1
    69    26   119     1
    70    27    28     1
    71    27    29     1
    72    27   120     1
    73    28   121     1
    74    28   122     1
    75    28   123     1
    76    29   124     1
    77    29   125     1
    78    29   126     1
    79    30    63     2
    80    31    32     1
    81    31    33     1
    82    31    34     1
    83    31    76     1
    84    32    35     1
    85    32    36     1
    86    33    37     1
    87    34    38     1
    88    34   127     1
    89    34   128     1
    90    35    39     1
    91    36    38     1
    92    36   129     1
    93    36   130     1
    94    37    40     1
    95    37    41     1
    96    38   131     1
    97    38   132     1
    98    39    42     1
    99    39   133     1
   100    40    43     1
   101    40    44     1
   102    40    77     1
   103    41    45     1
   104    41   134     1
   105    41   135     1
   106    42    46     1
   107    42   136     1
   108    43    47     1
   109    44    45     1
   110    44   137     1
   111    44   138     1
   112    45   139     1
   113    45   140     1
   114    46    48     1
   115    47    49     1
   116    47   141     1
   117    48    50     1
   118    48   142     1
   119    49    51     1
   120    49   143     1
   121    50    52     1
   122    50   144     1
   123    51    53     1
   124    52    54     1
   125    53    55     1
   126    53   145     1
   127    54    56     1
   128    54    78     1
   129    55    57     1
   130    55   146     1
   131    56    58     1
   132    56   147     1
   133    57    59     1
   134    58    60     1
   135    59    61     1
   136    59   148     1
   137    60    62     1
   138    60    79     1
   139    61    63     1
   140    61   149     1
   141    62    63     1
   142    62   150     1
   143    64    65     1
   144    64    66     2
   145    65    67     2
   146    65   151     1
   147    66    68     1
   148    66   152     1
   149    67    69     1
   150    67   153     1
   151    68    69     2
   152    68   154     1
   153    69   155     1
   154    70    71     1
   155    70    72     2
   156    71    73     2
   157    71   156     1
   158    72    74     1
   159    72   157     1
   160    73    75     1
   161    73   158     1
   162    74    75     2
   163    74   159     1
   164    75   160     1
