Cyclolinopeptide A
C57H85N9O9
33302-55-5 Copyright (C) 2022 ACS
 79 83  0  0  1  0  0  0  0  0999 V2000
   11.1630   13.8942    0.0000 O   0  0  0  0  0  0  0  0  0  0  0  0
   10.1870   15.0855    0.0000 O   0  0  0  0  0  0  0  0  0  0  0  0
   10.2985   19.1584    0.0000 C   0  0  0  0  0  0  0  0  0  0  0  0
    9.3225   20.3497    0.0000 C   0  0  0  0  0  0  0  0  0  0  0  0
   11.8181   19.4080    0.0000 C   0  0  0  0  0  0  0  0  0  0  0  0
   10.6375   12.4684    0.0000 O   0  0  0  0  0  0  0  0  0  0  0  0
    6.8971   19.7705    0.0000 O   0  0  0  0  0  0  0  0  0  0  0  0
    4.2268   17.6835    0.0000 C   0  0  0  0  0  0  0  0  0  0  0  0
    3.8895   19.1861    0.0000 C   0  0  0  0  0  0  0  0  0  0  0  0
    4.9784   20.2750    0.0000 C   0  0  0  0  0  0  0  0  0  0  0  0
    2.4019   19.5847    0.0000 C   0  0  0  0  0  0  0  0  0  0  0  0
   13.5654    8.8945    0.0000 C   0  0  0  0  0  0  0  0  0  0  0  0
   12.4780    6.0129    0.0000 O   0  0  0  0  0  0  0  0  0  0  0  0
    6.6223   13.1605    0.0000 O   0  0  0  0  0  0  0  0  0  0  0  0
    3.1507   15.2935    0.0000 C   0  0  1  0  0  0  0  0  0  0  0  0
    1.6311   15.0439    0.0000 C   0  0  0  0  0  0  0  0  0  0  0  0
    3.6944   16.7343    0.0000 C   0  0  0  0  0  0  0  0  0  0  0  0
    0.6551   16.2352    0.0000 C   0  0  0  0  0  0  0  0  0  0  0  0
   10.4146    4.3225    0.0000 C   0  0  0  0  0  0  0  0  0  0  0  0
    7.3753    3.8234    0.0000 O   0  0  0  0  0  0  0  0  0  0  0  0
    6.0786   11.7197    0.0000 O   0  0  0  0  0  0  0  0  0  0  0  0
    2.4956    9.7797    0.0000 C   0  0  1  0  0  0  0  0  0  0  0  0
    1.5196   10.9710    0.0000 C   0  0  0  0  0  0  0  0  0  0  0  0
    1.9519    8.3389    0.0000 C   0  0  0  0  0  0  0  0  0  0  0  0
    0.0000   10.7214    0.0000 C   0  0  0  0  0  0  0  0  0  0  0  0
    4.8797    4.7651    0.0000 C   0  0  0  0  0  0  0  0  0  0  0  0
    3.3601    4.5155    0.0000 C   0  0  0  0  0  0  0  0  0  0  0  0
    2.3841    5.7068    0.0000 C   0  0  0  0  0  0  0  0  0  0  0  0
    2.8164    3.0747    0.0000 C   0  0  0  0  0  0  0  0  0  0  0  0
    2.9278    7.1476    0.0000 O   0  0  0  0  0  0  0  0  0  0  0  0
   13.2263   15.5846    0.0000 C   0  0  1  0  0  0  0  0  0  0  0  0
   12.2504   16.7759    0.0000 N   0  0  0  0  0  0  0  0  0  0  0  0
   12.6826   14.1438    0.0000 C   0  0  0  0  0  0  0  0  0  0  0  0
   14.6609   16.1447    0.0000 C   0  0  0  0  0  0  0  0  0  0  0  0
   10.7307   16.5263    0.0000 C   0  0  0  0  0  0  0  0  0  0  0  0
   13.0817   18.0722    0.0000 C   0  0  0  0  0  0  0  0  0  0  0  0
   13.6586   12.9525    0.0000 N   0  0  0  0  0  0  0  0  0  0  0  0
   14.5715   17.6821    0.0000 C   0  0  0  0  0  0  0  0  0  0  0  0
    9.7548   17.7176    0.0000 C   0  0  2  0  0  0  0  0  0  0  0  0
   13.1149   11.5117    0.0000 C   0  0  1  0  0  0  0  0  0  0  0  0
   15.1969   12.8807    0.0000 C   0  0  0  0  0  0  0  0  0  0  0  0
    8.2351   17.4681    0.0000 N   0  0  0  0  0  0  0  0  0  0  0  0
   11.6135   11.2771    0.0000 C   0  0  0  0  0  0  0  0  0  0  0  0
   14.3172   10.5494    0.0000 C   0  0  0  0  0  0  0  0  0  0  0  0
   15.6039   11.3955    0.0000 C   0  0  0  0  0  0  0  0  0  0  0  0
    6.8971   18.2305    0.0000 C   0  0  0  0  0  0  0  0  0  0  0  0
   11.0698    9.8363    0.0000 N   0  0  0  0  0  0  0  0  0  0  0  0
    5.7058   17.2545    0.0000 C   0  0  2  0  0  0  0  0  0  0  0  0
   12.0457    8.6450    0.0000 C   0  0  1  0  0  0  0  0  0  0  0  0
    6.1900   15.7926    0.0000 N   0  0  0  0  0  0  0  0  0  0  0  0
   11.5020    7.2042    0.0000 C   0  0  0  0  0  0  0  0  0  0  0  0
    5.6463   14.3518    0.0000 C   0  0  0  0  0  0  0  0  0  0  0  0
    9.9824    6.9546    0.0000 N   0  0  0  0  0  0  0  0  0  0  0  0
    4.1267   14.1022    0.0000 C   0  0  2  0  0  0  0  0  0  0  0  0
    9.4387    5.5138    0.0000 C   0  0  1  0  0  0  0  0  0  0  0  0
    3.5830   12.6614    0.0000 N   0  0  0  0  0  0  0  0  0  0  0  0
    7.9190    5.2642    0.0000 C   0  0  0  0  0  0  0  0  0  0  0  0
    4.5589   11.4701    0.0000 C   0  0  0  0  0  0  0  0  0  0  0  0
    6.9431    6.4555    0.0000 N   0  0  0  0  0  0  0  0  0  0  0  0
    4.0152   10.0293    0.0000 C   0  0  2  0  0  0  0  0  0  0  0  0
    5.4234    6.2059    0.0000 C   0  0  1  0  0  0  0  0  0  0  0  0
    4.9912    8.8380    0.0000 N   0  0  0  0  0  0  0  0  0  0  0  0
    4.4475    7.3972    0.0000 C   0  0  0  0  0  0  0  0  0  0  0  0
   14.5413    7.7033    0.0000 C   0  0  0  0  0  0  0  0  0  0  0  0
   16.0609    7.9528    0.0000 C   0  0  0  0  0  0  0  0  0  0  0  0
   13.9976    6.2624    0.0000 C   0  0  0  0  0  0  0  0  0  0  0  0
   17.0369    6.7616    0.0000 C   0  0  0  0  0  0  0  0  0  0  0  0
   14.9736    5.0712    0.0000 C   0  0  0  0  0  0  0  0  0  0  0  0
   16.4932    5.3207    0.0000 C   0  0  0  0  0  0  0  0  0  0  0  0
    9.8709    2.8817    0.0000 C   0  0  0  0  0  0  0  0  0  0  0  0
    8.3513    2.6321    0.0000 C   0  0  0  0  0  0  0  0  0  0  0  0
   10.8469    1.6904    0.0000 C   0  0  0  0  0  0  0  0  0  0  0  0
    7.8076    1.1913    0.0000 C   0  0  0  0  0  0  0  0  0  0  0  0
   10.3032    0.2496    0.0000 C   0  0  0  0  0  0  0  0  0  0  0  0
    8.7835    0.0000    0.0000 C   0  0  0  0  0  0  0  0  0  0  0  0
   14.3214   14.5019    0.0000 H   0  0  0  0  0  0  0  0  0  0  0  0
   12.7247   10.0219    0.0000 H   0  0  0  0  0  0  0  0  0  0  0  0
    2.6070   13.8527    0.0000 H   0  0  0  0  0  0  0  0  0  0  0  0
    3.0393   11.2206    0.0000 H   0  0  0  0  0  0  0  0  0  0  0  0
  1 33  2  0  0  0  0
  2 35  2  0  0  0  0
  3  4  1  0  0  0  0
  3  5  1  0  0  0  0
 39  3  1  1  0  0  0
  6 43  2  0  0  0  0
  7 46  2  0  0  0  0
  8  9  1  0  0  0  0
 48  8  1  1  0  0  0
  9 10  1  0  0  0  0
  9 11  1  0  0  0  0
 49 12  1  1  0  0  0
 12 64  1  0  0  0  0
 13 51  2  0  0  0  0
 14 52  2  0  0  0  0
 15 16  1  0  0  0  0
 15 17  1  6  0  0  0
 15 54  1  0  0  0  0
 16 18  1  0  0  0  0
 55 19  1  1  0  0  0
 19 70  1  0  0  0  0
 20 57  2  0  0  0  0
 21 58  2  0  0  0  0
 22 23  1  0  0  0  0
 22 24  1  1  0  0  0
 22 60  1  0  0  0  0
 23 25  1  0  0  0  0
 26 27  1  0  0  0  0
 61 26  1  1  0  0  0
 27 28  1  0  0  0  0
 27 29  1  0  0  0  0
 30 63  2  0  0  0  0
 31 32  1  0  0  0  0
 31 33  1  0  0  0  0
 31 34  1  0  0  0  0
 31 76  1  6  0  0  0
 32 35  1  0  0  0  0
 32 36  1  0  0  0  0
 33 37  1  0  0  0  0
 34 38  1  0  0  0  0
 35 39  1  0  0  0  0
 36 38  1  0  0  0  0
 37 40  1  0  0  0  0
 37 41  1  0  0  0  0
 39 42  1  0  0  0  0
 40 43  1  0  0  0  0
 40 44  1  0  0  0  0
 40 77  1  6  0  0  0
 41 45  1  0  0  0  0
 42 46  1  0  0  0  0
 43 47  1  0  0  0  0
 44 45  1  0  0  0  0
 46 48  1  0  0  0  0
 47 49  1  0  0  0  0
 48 50  1  0  0  0  0
 49 51  1  0  0  0  0
 50 52  1  0  0  0  0
 51 53  1  0  0  0  0
 52 54  1  0  0  0  0
 53 55  1  0  0  0  0
 54 56  1  0  0  0  0
 54 78  1  6  0  0  0
 55 57  1  0  0  0  0
 56 58  1  0  0  0  0
 57 59  1  0  0  0  0
 58 60  1  0  0  0  0
 59 61  1  0  0  0  0
 60 62  1  0  0  0  0
 60 79  1  6  0  0  0
 61 63  1  0  0  0  0
 62 63  1  0  0  0  0
 64 65  2  0  0  0  0
 64 66  1  0  0  0  0
 65 67  1  0  0  0  0
 66 68  2  0  0  0  0
 67 69  2  0  0  0  0
 68 69  1  0  0  0  0
 70 71  2  0  0  0  0
 70 72  1  0  0  0  0
 71 73  1  0  0  0  0
 72 74  2  0  0  0  0
 73 75  2  0  0  0  0
 74 75  1  0  0  0  0
M  END
> <cas.rn>
33302-55-5

> <cas.index.name>
Cyclo(L-isoleucyl-L-isoleucyl-L-leucyl-L-valyl-L-prolyl-L-prolyl-L-phenylalanyl-L-phenylalanyl-L-leucyl)

> <molecular.formula>
C57H85N9O9

> <molecular.weight>
1040.34

> <boiling.point.predicted>
1277.1±65.0 °C    Press: 760 Torr

> <density.predicted>
1.20±0.1 g/cm3    Temp: 20 °C; Press: 760 Torr

> <pka.predicted>
13.34±0.70    Most Acidic Temp: 25 °C

$$$$
