@<TRIPOS>MOLECULE
Unnamed
145 148 1 0 0
SMALL
USER_CHARGES


@<TRIPOS>ATOM
      1 O           2.1254    1.1021   -0.6918 O.2       1     ****    0.0000
      2 O           3.3496   -1.3620    0.4063 O.2       1     ****    0.0000
      3 C           4.2682    2.3813    1.4087 C.3       1     ****    0.0000
      4 C           2.4493   -5.3087   -1.0217 C.3       1     ****    0.0000
      5 C           3.7420   -6.0316   -1.4542 C.3       1     ****    0.0000
      6 C           4.2007   -7.0643   -0.4087 C.3       1     ****    0.0000
      7 C           3.5429   -6.7425   -2.8059 C.3       1     ****    0.0000
      8 O           3.7343    5.5071   -0.0615 O.2       1     ****    0.0000
      9 O           4.6670   -4.0908    1.0526 O.2       1     ****    0.0000
     10 C           1.2935    6.7860    1.0260 C.3       1     ****    0.0000
     11 C           1.5535    6.3756    2.4833 C.3       1     ****    0.0000
     12 C          -0.0260    7.5706    0.9372 C.3       1     ****    0.0000
     13 C           0.9212   -5.2256    3.5953 C.3       1     ****    0.0000
     14 O           0.2117    3.8569   -1.8502 O.2       1     ****    0.0000
     15 O           1.1126   -2.0936    2.5881 O.2       1     ****    0.0000
     16 C          -2.7688    3.7473   -0.5690 C.3       1     ****    0.0000
     17 C          -2.9460    5.0253    0.2733 C.3       1     ****    0.0000
     18 C          -4.2859    5.7026   -0.0718 C.3       1     ****    0.0000
     19 C          -2.8748    4.7722    1.7883 C.3       1     ****    0.0000
     20 C          -2.0600   -2.3289   -0.0739 C.3       1     ****    0.0000
     21 C          -1.4860   -1.4214   -1.1847 C.3       1     ****    0.0000
     22 C          -3.5971   -2.3783   -0.1558 C.3       1     ****    0.0000
     23 C           0.0217   -1.5900   -1.4102 C.3       1     ****    0.0000
     24 O          -3.0909    0.8716    0.6099 O.2       1     ****    0.0000
     25 O          -3.1775   -2.7264    2.8539 O.2       1     ****    0.0000
     26 C          -0.5214    0.5958    3.2249 C.3       1     ****    0.0000
     27 C          -0.0708    1.7216    4.1789 C.3       1     ****    0.0000
     28 S           1.3466    2.6028    3.5723 S.o       1     ****    0.0000
     29 C           1.9461    3.6417    4.8750 C.3       1     ****    0.0000
     30 O           1.1874    3.2027    2.2611 O.2       1     ****    0.0000
     31 N           4.2359    0.5778   -1.3297 N.am      1     ****    0.0000
     32 C           3.9197   -0.7492   -1.8538 C.3       1     ****    0.0000
     33 C           3.3017    1.3815   -0.7234 C.2       1     ****    0.0000
     34 C           5.6141    0.9273   -1.6438 C.3       1     ****    0.0000
     35 C           3.4988   -1.7050   -0.7408 C.2       1     ****    0.0000
     36 C           5.1791   -1.2163   -2.6050 C.3       1     ****    0.0000
     37 C           3.8009    2.6564   -0.0358 C.3       1     ****    0.0000
     38 C           6.2921   -0.4230   -1.9118 C.3       1     ****    0.0000
     39 N           3.2586   -2.9857   -1.1530 N.am      1     ****    0.0000
     40 N           2.6312    3.5400    0.0306 N.am      1     ****    0.0000
     41 C           2.6590   -3.9867   -0.2576 C.3       1     ****    0.0000
     42 C           2.6932    4.9019   -0.0004 C.2       1     ****    0.0000
     43 C           3.4629   -4.1444    1.0368 C.2       1     ****    0.0000
     44 C           1.3270    5.5885    0.0490 C.3       1     ****    0.0000
     45 N           2.7620   -4.3352    2.1984 N.am      1     ****    0.0000
     46 N           0.2298    4.6267    0.2696 N.am      1     ****    0.0000
     47 C           1.2996   -4.4710    2.3102 C.3       1     ****    0.0000
     48 C          -0.2559    3.8351   -0.7381 C.2       1     ****    0.0000
     49 C           0.5867   -3.1205    2.2412 C.2       1     ****    0.0000
     50 C          -1.4579    2.9521   -0.3797 C.3       1     ****    0.0000
     51 N          -0.6806   -3.1867    1.7327 N.am      1     ****    0.0000
     52 N          -1.3500    2.2892    0.9306 N.am      1     ****    0.0000
     53 C          -1.4856   -2.0140    1.3397 C.3       1     ****    0.0000
     54 C          -2.1897    1.2721    1.3021 C.2       1     ****    0.0000
     55 C          -2.5357   -1.7995    2.4315 C.2       1     ****    0.0000
     56 C          -1.9640    0.6859    2.6953 C.3       1     ****    0.0000
     57 N          -2.7469   -0.5424    2.9355 N.am      1     ****    0.0000
     58 C           5.6813    1.8642    1.5469 C.ar      1     ****    0.0000
     59 C           5.9289    0.5745    1.8389 C.ar      1     ****    0.0000
     60 C           6.7260    2.6975    1.3894 C.ar      1     ****    0.0000
     61 C           7.1871    0.1220    1.9527 C.ar      1     ****    0.0000
     62 C           7.9870    2.2524    1.5032 C.ar      1     ****    0.0000
     63 C           8.2198    0.9611    1.7825 C.ar      1     ****    0.0000
     64 C          -0.5779   -5.4167    3.6993 C.ar      1     ****    0.0000
     65 C          -1.2904   -4.8054    4.6626 C.ar      1     ****    0.0000
     66 C          -1.2315   -6.1962    2.8187 C.ar      1     ****    0.0000
     67 C          -2.6189   -4.9733    4.7505 C.ar      1     ****    0.0000
     68 C          -2.5614   -6.3561    2.8904 C.ar      1     ****    0.0000
     69 C          -3.2585   -5.7471    3.8608 C.ar      1     ****    0.0000
     70 H           3.0599   -0.6843   -2.5633 H         1     ****    0.0000
     71 H          -0.8407   -1.1173    1.2602 H         1     ****    0.0000
     72 H           4.2107    3.3247    2.0031 H         1     ****    0.0000
     73 H           3.5557    1.6750    1.8926 H         1     ****    0.0000
     74 H           1.8491   -5.0566   -1.9293 H         1     ****    0.0000
     75 H           1.8146   -6.0108   -0.4343 H         1     ****    0.0000
     76 H           4.5533   -5.2746   -1.5940 H         1     ****    0.0000
     77 H           5.1661   -7.5338   -0.7058 H         1     ****    0.0000
     78 H           4.3531   -6.6120    0.5948 H         1     ****    0.0000
     79 H           3.4512   -7.8798   -0.2930 H         1     ****    0.0000
     80 H           4.4694   -7.2723   -3.1249 H         1     ****    0.0000
     81 H           3.2872   -6.0175   -3.6123 H         1     ****    0.0000
     82 H           2.7228   -7.4938   -2.7471 H         1     ****    0.0000
     83 H           2.1096    7.4937    0.7271 H         1     ****    0.0000
     84 H           2.5103    5.8165    2.5874 H         1     ****    0.0000
     85 H           1.6209    7.2678    3.1466 H         1     ****    0.0000
     86 H           0.7272    5.7400    2.8722 H         1     ****    0.0000
     87 H          -0.2743    7.8394   -0.1146 H         1     ****    0.0000
     88 H           0.0305    8.5182    1.5202 H         1     ****    0.0000
     89 H          -0.8714    6.9826    1.3560 H         1     ****    0.0000
     90 H           1.4127   -6.2272    3.6098 H         1     ****    0.0000
     91 H           1.3178   -4.6657    4.4737 H         1     ****    0.0000
     92 H          -2.8322    4.0361   -1.6469 H         1     ****    0.0000
     93 H          -3.6496    3.0905   -0.3889 H         1     ****    0.0000
     94 H          -2.1394    5.7429   -0.0123 H         1     ****    0.0000
     95 H          -4.4054    6.6654    0.4757 H         1     ****    0.0000
     96 H          -4.3577    5.9324   -1.1594 H         1     ****    0.0000
     97 H          -5.1476    5.0503    0.1970 H         1     ****    0.0000
     98 H          -3.0928    5.7020    2.3611 H         1     ****    0.0000
     99 H          -1.8654    4.4386    2.1139 H         1     ****    0.0000
    100 H          -3.6132    3.9994    2.1006 H         1     ****    0.0000
    101 H          -1.7366   -3.3662   -0.3537 H         1     ****    0.0000
    102 H          -1.9966   -1.6460   -2.1522 H         1     ****    0.0000
    103 H          -1.7031   -0.3545   -0.9599 H         1     ****    0.0000
    104 H          -4.0210   -3.1733    0.4978 H         1     ****    0.0000
    105 H          -3.9413   -2.6180   -1.1876 H         1     ****    0.0000
    106 H          -4.0650   -1.4114    0.1253 H         1     ****    0.0000
    107 H           0.3829   -0.9124   -2.2177 H         1     ****    0.0000
    108 H           0.6052   -1.3501   -0.4945 H         1     ****    0.0000
    109 H           0.2637   -2.6323   -1.7180 H         1     ****    0.0000
    110 H           0.1772    0.4935    2.3637 H         1     ****    0.0000
    111 H          -0.4347   -0.3566    3.8020 H         1     ****    0.0000
    112 H           0.1938    1.2989    5.1765 H         1     ****    0.0000
    113 H          -0.8745    2.4720    4.3519 H         1     ****    0.0000
    114 H           2.8723    4.1635    4.5459 H         1     ****    0.0000
    115 H           1.1782    4.4008    5.1438 H         1     ****    0.0000
    116 H           2.1825    3.0302    5.7738 H         1     ****    0.0000
    117 H           6.1472    1.4637   -0.8355 H         1     ****    0.0000
    118 H           5.6252    1.5624   -2.5604 H         1     ****    0.0000
    119 H           5.1201   -0.9032   -3.6752 H         1     ****    0.0000
    120 H           5.3528   -2.3147   -2.5751 H         1     ****    0.0000
    121 H           4.5849    3.1436   -0.6562 H         1     ****    0.0000
    122 H           7.2157   -0.3327   -2.5270 H         1     ****    0.0000
    123 H           6.5531   -0.9160   -0.9444 H         1     ****    0.0000
    124 H           3.4433   -3.2366   -2.1235 H         1     ****    0.0000
    125 H           1.7263    3.0826    0.1648 H         1     ****    0.0000
    126 H           1.6536   -3.5734   -0.0167 H         1     ****    0.0000
    127 H           1.2029    6.0320   -0.9708 H         1     ****    0.0000
    128 H           3.3229   -4.3213    3.0490 H         1     ****    0.0000
    129 H          -0.0865    4.4582    1.2246 H         1     ****    0.0000
    130 H           0.9428   -5.0927    1.4566 H         1     ****    0.0000
    131 H          -1.4434    2.1341   -1.1444 H         1     ****    0.0000
    132 H          -1.1330   -4.1029    1.6904 H         1     ****    0.0000
    133 H          -0.6202    2.5852    1.5749 H         1     ****    0.0000
    134 H          -2.4959    1.4359    3.3338 H         1     ****    0.0000
    135 H          -3.5068   -0.4974    3.6146 H         1     ****    0.0000
    136 H           5.0945   -0.1300    1.9830 H         1     ****    0.0000
    137 H           6.5476    3.7601    1.1546 H         1     ****    0.0000
    138 H           7.3722   -0.9403    2.1846 H         1     ****    0.0000
    139 H           8.8321    2.9472    1.3637 H         1     ****    0.0000
    140 H           9.2547    0.5917    1.8735 H         1     ****    0.0000
    141 H          -0.7860   -4.1535    5.3947 H         1     ****    0.0000
    142 H          -0.6753   -6.7120    2.0188 H         1     ****    0.0000
    143 H          -3.1880   -4.4651    5.5469 H         1     ****    0.0000
    144 H          -3.0819   -6.9924    2.1551 H         1     ****    0.0000
    145 H          -4.3514   -5.8782    3.9247 H         1     ****    0.0000
@<TRIPOS>BOND
     1     1    33     2
     2     2    35     2
     3     3    37     1
     4     3    58     1
     5     3    72     1
     6     3    73     1
     7     4     5     1
     8     4    41     1
     9     4    74     1
    10     4    75     1
    11     5     6     1
    12     5     7     1
    13     5    76     1
    14     6    77     1
    15     6    78     1
    16     6    79     1
    17     7    80     1
    18     7    81     1
    19     7    82     1
    20     8    42     2
    21     9    43     2
    22    10    11     1
    23    10    12     1
    24    10    44     1
    25    10    83     1
    26    11    84     1
    27    11    85     1
    28    11    86     1
    29    12    87     1
    30    12    88     1
    31    12    89     1
    32    13    47     1
    33    13    64     1
    34    13    90     1
    35    13    91     1
    36    14    48     2
    37    15    49     2
    38    16    17     1
    39    16    50     1
    40    16    92     1
    41    16    93     1
    42    17    18     1
    43    17    19     1
    44    17    94     1
    45    18    95     1
    46    18    96     1
    47    18    97     1
    48    19    98     1
    49    19    99     1
    50    19   100     1
    51    20    21     1
    52    20    22     1
    53    20    53     1
    54    20   101     1
    55    21    23     1
    56    21   102     1
    57    21   103     1
    58    22   104     1
    59    22   105     1
    60    22   106     1
    61    23   107     1
    62    23   108     1
    63    23   109     1
    64    24    54     2
    65    25    55     2
    66    26    27     1
    67    26    56     1
    68    26   110     1
    69    26   111     1
    70    27    28     1
    71    27   112     1
    72    27   113     1
    73    28    29     1
    74    28    30     2
    75    29   114     1
    76    29   115     1
    77    29   116     1
    78    31    32     1
    79    31    33     1
    80    31    34     1
    81    32    35     1
    82    32    36     1
    83    32    70     1
    84    33    37     1
    85    34    38     1
    86    34   117     1
    87    34   118     1
    88    35    39     1
    89    36    38     1
    90    36   119     1
    91    36   120     1
    92    37    40     1
    93    37   121     1
    94    38   122     1
    95    38   123     1
    96    39    41     1
    97    39   124     1
    98    40    42     1
    99    40   125     1
   100    41    43     1
   101    41   126     1
   102    42    44     1
   103    43    45     1
   104    44    46     1
   105    44   127     1
   106    45    47     1
   107    45   128     1
   108    46    48     1
   109    46   129     1
   110    47    49     1
   111    47   130     1
   112    48    50     1
   113    49    51     1
   114    50    52     1
   115    50   131     1
   116    51    53     1
   117    51   132     1
   118    52    54     1
   119    52   133     1
   120    53    55     1
   121    53    71     1
   122    54    56     1
   123    55    57     1
   124    56    57     1
   125    56   134     1
   126    57   135     1
   127    58    59     1
   128    58    60     2
   129    59    61     2
   130    59   136     1
   131    60    62     1
   132    60   137     1
   133    61    63     1
   134    61   138     1
   135    62    63     2
   136    62   139     1
   137    63   140     1
   138    64    65     1
   139    64    66     2
   140    65    67     2
   141    65   141     1
   142    66    68     1
   143    66   142     1
   144    67    69     1
   145    67   143     1
   146    68    69     2
   147    68   144     1
   148    69   145     1
