@<TRIPOS>MOLECULE
Unnamed
144 147 1 0 0
SMALL
USER_CHARGES


@<TRIPOS>ATOM
      1 O           1.9983    1.2026   -1.2969 O.2       1     ****    0.0000
      2 O           2.9540   -1.2032    0.0724 O.2       1     ****    0.0000
      3 C           3.9287    2.0691    1.1904 C.3       1     ****    0.0000
      4 C           2.5569   -5.3386   -0.8631 C.3       1     ****    0.0000
      5 C           3.9197   -6.0061   -1.1418 C.3       1     ****    0.0000
      6 C           4.4077   -6.8403    0.0565 C.3       1     ****    0.0000
      7 C           3.8381   -6.9142   -2.3831 C.3       1     ****    0.0000
      8 O           3.5481    5.1903    0.8372 O.2       1     ****    0.0000
      9 O           4.5872   -3.6650    1.0767 O.2       1     ****    0.0000
     10 C           0.9428    6.3318    1.7137 C.3       1     ****    0.0000
     11 C           1.7226    7.6541    1.6104 C.3       1     ****    0.0000
     12 C           1.2092    5.6375    3.0594 C.3       1     ****    0.0000
     13 C           0.8831   -4.7220    3.6759 C.3       1     ****    0.0000
     14 O           0.0782    4.0297   -1.7161 O.2       1     ****    0.0000
     15 O           0.8680   -1.7114    2.3641 O.2       1     ****    0.0000
     16 C          -2.9177    3.8305   -0.6822 C.3       1     ****    0.0000
     17 C          -3.0693    5.0886    0.1997 C.3       1     ****    0.0000
     18 C          -4.3070    5.8909   -0.2460 C.3       1     ****    0.0000
     19 C          -3.1831    4.7681    1.6991 C.3       1     ****    0.0000
     20 C          -2.2387   -2.2993   -0.2597 C.3       1     ****    0.0000
     21 C          -1.6435   -1.4018   -1.3670 C.3       1     ****    0.0000
     22 C          -3.7690   -2.3824   -0.4200 C.3       1     ****    0.0000
     23 C          -0.1206   -1.5103   -1.5006 C.3       1     ****    0.0000
     24 O          -3.4312    0.8998    0.3623 O.2       1     ****    0.0000
     25 O          -3.4302   -2.8103    2.5847 O.2       1     ****    0.0000
     26 C          -1.1311    0.7298    3.2632 C.3       1     ****    0.0000
     27 C          -0.9465    1.9786    4.1448 C.3       1     ****    0.0000
     28 S           0.5450    1.8664    5.1856 S.3       1     ****    0.0000
     29 C           1.8204    1.7103    3.9106 C.3       1     ****    0.0000
     30 N           4.1429    0.5563   -1.6211 N.am      1     ****    0.0000
     31 C           3.8367   -0.7809   -2.1275 C.3       1     ****    0.0000
     32 C           3.1791    1.3979   -1.1254 C.2       1     ****    0.0000
     33 C           5.5591    0.8516   -1.7815 C.3       1     ****    0.0000
     34 C           3.2987   -1.6514   -0.9932 C.2       1     ****    0.0000
     35 C           5.1506   -1.3004   -2.7372 C.3       1     ****    0.0000
     36 C           3.6394    2.5676   -0.2462 C.3       1     ****    0.0000
     37 C           6.2130   -0.5269   -1.9479 C.3       1     ****    0.0000
     38 N           3.2012   -2.9853   -1.2694 N.am      1     ****    0.0000
     39 N           2.4978    3.4914   -0.1995 N.am      1     ****    0.0000
     40 C           2.6272   -3.9141   -0.2823 C.3       1     ****    0.0000
     41 C           2.5270    4.7112    0.4113 C.2       1     ****    0.0000
     42 C           3.3919   -3.8168    1.0433 C.2       1     ****    0.0000
     43 C           1.1572    5.3810    0.5136 C.3       1     ****    0.0000
     44 N           2.6690   -3.8734    2.2046 N.am      1     ****    0.0000
     45 N           0.0663    4.3873    0.5105 N.am      1     ****    0.0000
     46 C           1.2171   -4.0901    2.3142 C.3       1     ****    0.0000
     47 C          -0.4205    3.8223   -0.6368 C.2       1     ****    0.0000
     48 C           0.4196   -2.8011    2.1110 C.2       1     ****    0.0000
     49 C          -1.6660    2.9550   -0.4498 C.3       1     ****    0.0000
     50 N          -0.8384   -3.0007    1.6140 N.am      1     ****    0.0000
     51 N          -1.6774    2.2526    0.8431 N.am      1     ****    0.0000
     52 C          -1.7404   -1.9223    1.1672 C.3       1     ****    0.0000
     53 C          -2.5835    1.2678    1.1358 C.2       1     ****    0.0000
     54 C          -2.8543   -1.8223    2.2084 C.2       1     ****    0.0000
     55 C          -2.4940    0.6859    2.5452 C.3       1     ****    0.0000
     56 N          -3.2016   -0.5968    2.7098 N.am      1     ****    0.0000
     57 C           5.3109    1.5118    1.4456 C.ar      1     ****    0.0000
     58 C           5.5024    0.2130    1.7403 C.ar      1     ****    0.0000
     59 C           6.3841    2.3229    1.4109 C.ar      1     ****    0.0000
     60 C           6.7336   -0.2717    1.9636 C.ar      1     ****    0.0000
     61 C           7.6186    1.8464    1.6345 C.ar      1     ****    0.0000
     62 C           7.7962    0.5450    1.9068 C.ar      1     ****    0.0000
     63 C          -0.5992   -4.9959    3.8209 C.ar      1     ****    0.0000
     64 C          -1.3409   -4.3362    4.7288 C.ar      1     ****    0.0000
     65 C          -1.2069   -5.9066    3.0391 C.ar      1     ****    0.0000
     66 C          -2.6525   -4.5867    4.8621 C.ar      1     ****    0.0000
     67 C          -2.5204   -6.1528    3.1572 C.ar      1     ****    0.0000
     68 C          -3.2458   -5.4963    4.0746 C.ar      1     ****    0.0000
     69 H           3.0422   -0.7353   -2.9097 H         1     ****    0.0000
     70 H          -1.1957   -0.9587    1.1121 H         1     ****    0.0000
     71 H           3.8104    2.8995    1.9245 H         1     ****    0.0000
     72 H           3.1478    1.3254    1.4686 H         1     ****    0.0000
     73 H           1.9843   -5.2610   -1.8189 H         1     ****    0.0000
     74 H           1.9493   -6.0010   -0.2045 H         1     ****    0.0000
     75 H           4.6761   -5.2119   -1.3613 H         1     ****    0.0000
     76 H           5.4191   -7.2652   -0.1363 H         1     ****    0.0000
     77 H           4.4781   -6.2411    0.9896 H         1     ****    0.0000
     78 H           3.7187   -7.6908    0.2617 H         1     ****    0.0000
     79 H           4.8162   -7.4054   -2.5903 H         1     ****    0.0000
     80 H           3.5648   -6.3336   -3.2939 H         1     ****    0.0000
     81 H           3.0761   -7.7147   -2.2451 H         1     ****    0.0000
     82 H          -0.1427    6.6181    1.7023 H         1     ****    0.0000
     83 H           1.5351    8.1615    0.6369 H         1     ****    0.0000
     84 H           1.4126    8.3605    2.4144 H         1     ****    0.0000
     85 H           2.8195    7.5125    1.7157 H         1     ****    0.0000
     86 H           0.5824    4.7255    3.1739 H         1     ****    0.0000
     87 H           0.9677    6.3104    3.9135 H         1     ****    0.0000
     88 H           2.2738    5.3326    3.1658 H         1     ****    0.0000
     89 H           1.4367   -5.6835    3.7957 H         1     ****    0.0000
     90 H           1.2464   -4.0472    4.4855 H         1     ****    0.0000
     91 H          -2.8962    4.1619   -1.7493 H         1     ****    0.0000
     92 H          -3.8414    3.2165   -0.5816 H         1     ****    0.0000
     93 H          -2.1802    5.7505    0.0483 H         1     ****    0.0000
     94 H          -4.4124    6.8329    0.3391 H         1     ****    0.0000
     95 H          -4.2406    6.1785   -1.3201 H         1     ****    0.0000
     96 H          -5.2407    5.2997   -0.1078 H         1     ****    0.0000
     97 H          -3.3916    5.6871    2.2925 H         1     ****    0.0000
     98 H          -2.2403    4.3455    2.1081 H         1     ****    0.0000
     99 H          -4.0043    4.0421    1.8951 H         1     ****    0.0000
    100 H          -1.8781   -3.3370   -0.4860 H         1     ****    0.0000
    101 H          -2.0862   -1.6814   -2.3535 H         1     ****    0.0000
    102 H          -1.9230   -0.3395   -1.1892 H         1     ****    0.0000
    103 H          -4.2147   -3.1738    0.2227 H         1     ****    0.0000
    104 H          -4.0545   -2.6480   -1.4634 H         1     ****    0.0000
    105 H          -4.2686   -1.4196   -0.1826 H         1     ****    0.0000
    106 H           0.2549   -0.8638   -2.3266 H         1     ****    0.0000
    107 H           0.3944   -1.1905   -0.5686 H         1     ****    0.0000
    108 H           0.1850   -2.5553   -1.7326 H         1     ****    0.0000
    109 H          -0.3221    0.6775    2.5006 H         1     ****    0.0000
    110 H          -1.0430   -0.1757    3.9106 H         1     ****    0.0000
    111 H          -1.8206    2.0882    4.8292 H         1     ****    0.0000
    112 H          -0.9142    2.8931    3.5105 H         1     ****    0.0000
    113 H           2.8202    1.8707    4.3717 H         1     ****    0.0000
    114 H           1.8019    0.6925    3.4637 H         1     ****    0.0000
    115 H           1.6592    2.4767    3.1205 H         1     ****    0.0000
    116 H           6.0156    1.3944   -0.9323 H         1     ****    0.0000
    117 H           5.6938    1.4648   -2.7030 H         1     ****    0.0000
    118 H           5.2095   -1.0049   -3.8124 H         1     ****    0.0000
    119 H           5.2870   -2.4023   -2.6753 H         1     ****    0.0000
    120 H           4.4961    3.1019   -0.7126 H         1     ****    0.0000
    121 H           7.1983   -0.4824   -2.4644 H         1     ****    0.0000
    122 H           6.3543   -1.0056   -0.9491 H         1     ****    0.0000
    123 H           3.5256   -3.3415   -2.1670 H         1     ****    0.0000
    124 H           1.6303    3.1678   -0.6316 H         1     ****    0.0000
    125 H           1.5814   -3.5591   -0.1344 H         1     ****    0.0000
    126 H           1.0679    6.0073   -0.4079 H         1     ****    0.0000
    127 H           3.2015   -3.6809    3.0519 H         1     ****    0.0000
    128 H          -0.3393    4.1109    1.4042 H         1     ****    0.0000
    129 H           0.9064   -4.8217    1.5327 H         1     ****    0.0000
    130 H          -1.6130    2.1758   -1.2505 H         1     ****    0.0000
    131 H          -1.2182   -3.9502    1.6338 H         1     ****    0.0000
    132 H          -0.9846    2.5054    1.5471 H         1     ****    0.0000
    133 H          -3.1588    1.3973    3.1000 H         1     ****    0.0000
    134 H          -3.9921   -0.6267    3.3539 H         1     ****    0.0000
    135 H           4.6452   -0.4751    1.8027 H         1     ****    0.0000
    136 H           6.2520    3.3949    1.1882 H         1     ****    0.0000
    137 H           6.8714   -1.3411    2.1959 H         1     ****    0.0000
    138 H           8.4875    2.5244    1.5935 H         1     ****    0.0000
    139 H           8.8092    0.1500    2.0900 H         1     ****    0.0000
    140 H          -0.8745   -3.5779    5.3791 H         1     ****    0.0000
    141 H          -0.6251   -6.4645    2.2872 H         1     ****    0.0000
    142 H          -3.2459   -4.0383    5.6128 H         1     ****    0.0000
    143 H          -3.0033   -6.8996    2.5050 H         1     ****    0.0000
    144 H          -4.3249   -5.6985    4.1770 H         1     ****    0.0000
@<TRIPOS>BOND
     1     1    32     2
     2     2    34     2
     3     3    36     1
     4     3    57     1
     5     3    71     1
     6     3    72     1
     7     4     5     1
     8     4    40     1
     9     4    73     1
    10     4    74     1
    11     5     6     1
    12     5     7     1
    13     5    75     1
    14     6    76     1
    15     6    77     1
    16     6    78     1
    17     7    79     1
    18     7    80     1
    19     7    81     1
    20     8    41     2
    21     9    42     2
    22    10    11     1
    23    10    12     1
    24    10    43     1
    25    10    82     1
    26    11    83     1
    27    11    84     1
    28    11    85     1
    29    12    86     1
    30    12    87     1
    31    12    88     1
    32    13    46     1
    33    13    63     1
    34    13    89     1
    35    13    90     1
    36    14    47     2
    37    15    48     2
    38    16    17     1
    39    16    49     1
    40    16    91     1
    41    16    92     1
    42    17    18     1
    43    17    19     1
    44    17    93     1
    45    18    94     1
    46    18    95     1
    47    18    96     1
    48    19    97     1
    49    19    98     1
    50    19    99     1
    51    20    21     1
    52    20    22     1
    53    20    52     1
    54    20   100     1
    55    21    23     1
    56    21   101     1
    57    21   102     1
    58    22   103     1
    59    22   104     1
    60    22   105     1
    61    23   106     1
    62    23   107     1
    63    23   108     1
    64    24    53     2
    65    25    54     2
    66    26    27     1
    67    26    55     1
    68    26   109     1
    69    26   110     1
    70    27    28     1
    71    27   111     1
    72    27   112     1
    73    28    29     1
    74    29   113     1
    75    29   114     1
    76    29   115     1
    77    30    31     1
    78    30    32     1
    79    30    33     1
    80    31    34     1
    81    31    35     1
    82    31    69     1
    83    32    36     1
    84    33    37     1
    85    33   116     1
    86    33   117     1
    87    34    38     1
    88    35    37     1
    89    35   118     1
    90    35   119     1
    91    36    39     1
    92    36   120     1
    93    37   121     1
    94    37   122     1
    95    38    40     1
    96    38   123     1
    97    39    41     1
    98    39   124     1
    99    40    42     1
   100    40   125     1
   101    41    43     1
   102    42    44     1
   103    43    45     1
   104    43   126     1
   105    44    46     1
   106    44   127     1
   107    45    47     1
   108    45   128     1
   109    46    48     1
   110    46   129     1
   111    47    49     1
   112    48    50     1
   113    49    51     1
   114    49   130     1
   115    50    52     1
   116    50   131     1
   117    51    53     1
   118    51   132     1
   119    52    54     1
   120    52    70     1
   121    53    55     1
   122    54    56     1
   123    55    56     1
   124    55   133     1
   125    56   134     1
   126    57    58     1
   127    57    59     2
   128    58    60     2
   129    58   135     1
   130    59    61     1
   131    59   136     1
   132    60    62     1
   133    60   137     1
   134    61    62     2
   135    61   138     1
   136    62   139     1
   137    63    64     1
   138    63    65     2
   139    64    66     2
   140    64   140     1
   141    65    67     1
   142    65   141     1
   143    66    68     1
   144    66   142     1
   145    67    68     2
   146    67   143     1
   147    68   144     1
