Cyclolinopeptide P
C51H76N8O8S
343329-77-1 Copyright (C) 2022 ACS
 70 73  0  0  1  0  0  0  0  0999 V2000
   12.0031    6.9300    0.0000 O   0  0  0  0  0  0  0  0  0  0  0  0
   12.0031    5.3900    0.0000 O   0  0  0  0  0  0  0  0  0  0  0  0
   15.4707   10.4720    0.0000 C   0  0  0  0  0  0  0  0  0  0  0  0
   10.8234    3.2999    0.0000 C   0  0  0  0  0  0  0  0  0  0  0  0
   11.1710    5.2715    0.0000 C   0  0  0  0  0  0  0  0  0  0  0  0
   12.5047    6.0415    0.0000 C   0  0  0  0  0  0  0  0  0  0  0  0
    9.9096    6.1548    0.0000 C   0  0  0  0  0  0  0  0  0  0  0  0
   13.3368   12.3200    0.0000 O   0  0  0  0  0  0  0  0  0  0  0  0
   13.3368    0.0000    0.0000 O   0  0  0  0  0  0  0  0  0  0  0  0
   10.6694   13.8600    0.0000 C   0  0  0  0  0  0  0  0  0  0  0  0
    9.3358   14.6300    0.0000 C   0  0  0  0  0  0  0  0  0  0  0  0
   12.0031   14.6300    0.0000 C   0  0  0  0  0  0  0  0  0  0  0  0
    8.0021    0.0000    0.0000 C   0  0  0  0  0  0  0  0  0  0  0  0
    8.0021   13.8600    0.0000 O   0  0  0  0  0  0  0  0  0  0  0  0
   10.1058    3.6437    0.0000 O   0  0  0  0  0  0  0  0  0  0  0  0
    5.3347   12.3200    0.0000 C   0  0  0  0  0  0  0  0  0  0  0  0
    5.3347   13.8600    0.0000 C   0  0  0  0  0  0  0  0  0  0  0  0
    6.6684   14.6300    0.0000 C   0  0  0  0  0  0  0  0  0  0  0  0
    4.0010   14.6300    0.0000 C   0  0  0  0  0  0  0  0  0  0  0  0
    9.3358    5.3900    0.0000 C   0  0  1  0  0  0  0  0  0  0  0  0
    9.3358    6.9300    0.0000 C   0  0  0  0  0  0  0  0  0  0  0  0
   10.6694    4.6200    0.0000 C   0  0  0  0  0  0  0  0  0  0  0  0
   10.6694    7.7000    0.0000 C   0  0  0  0  0  0  0  0  0  0  0  0
    4.0010   10.0100    0.0000 O   0  0  0  0  0  0  0  0  0  0  0  0
    5.3347    4.6200    0.0000 O   0  0  0  0  0  0  0  0  0  0  0  0
    4.0010    6.9300    0.0000 C   0  0  0  0  0  0  0  0  0  0  0  0
    2.6674    7.7000    0.0000 C   0  0  0  0  0  0  0  0  0  0  0  0
    1.3337    6.9300    0.0000 S   0  0  0  0  0  0  0  0  0  0  0  0
    0.0000    7.7000    0.0000 C   0  0  0  0  0  0  0  0  0  0  0  0
   14.6705    6.9300    0.0000 N   0  0  0  0  0  0  0  0  0  0  0  0
   14.6705    5.3900    0.0000 C   0  0  1  0  0  0  0  0  0  0  0  0
   13.3368    7.7000    0.0000 C   0  0  0  0  0  0  0  0  0  0  0  0
   16.1351    7.4059    0.0000 C   0  0  0  0  0  0  0  0  0  0  0  0
   13.3368    4.6200    0.0000 C   0  0  0  0  0  0  0  0  0  0  0  0
   16.1351    4.9141    0.0000 C   0  0  0  0  0  0  0  0  0  0  0  0
   13.3368    9.2400    0.0000 C   0  0  2  0  0  0  0  0  0  0  0  0
   17.0403    6.1600    0.0000 C   0  0  0  0  0  0  0  0  0  0  0  0
   13.3368    3.0800    0.0000 N   0  0  0  0  0  0  0  0  0  0  0  0
   12.0031   10.0100    0.0000 N   0  0  0  0  0  0  0  0  0  0  0  0
   12.0031    2.3100    0.0000 C   0  0  1  0  0  0  0  0  0  0  0  0
   12.0031   11.5500    0.0000 C   0  0  0  0  0  0  0  0  0  0  0  0
   12.0031    0.7700    0.0000 C   0  0  0  0  0  0  0  0  0  0  0  0
   10.6694   12.3200    0.0000 C   0  0  2  0  0  0  0  0  0  0  0  0
   10.6694    0.0000    0.0000 N   0  0  0  0  0  0  0  0  0  0  0  0
    9.3358   11.5500    0.0000 N   0  0  0  0  0  0  0  0  0  0  0  0
    9.3358    0.7700    0.0000 C   0  0  1  0  0  0  0  0  0  0  0  0
    8.0021   12.3200    0.0000 C   0  0  0  0  0  0  0  0  0  0  0  0
    9.3358    2.3100    0.0000 C   0  0  0  0  0  0  0  0  0  0  0  0
    6.6684   11.5500    0.0000 C   0  0  2  0  0  0  0  0  0  0  0  0
    8.0021    3.0800    0.0000 N   0  0  0  0  0  0  0  0  0  0  0  0
    6.6684   10.0100    0.0000 N   0  0  0  0  0  0  0  0  0  0  0  0
    8.0021    4.6200    0.0000 C   0  0  1  0  0  0  0  0  0  0  0  0
    5.3347    9.2400    0.0000 C   0  0  0  0  0  0  0  0  0  0  0  0
    6.6684    5.3900    0.0000 C   0  0  0  0  0  0  0  0  0  0  0  0
    5.3347    7.7000    0.0000 C   0  0  2  0  0  0  0  0  0  0  0  0
    6.6684    6.9300    0.0000 N   0  0  0  0  0  0  0  0  0  0  0  0
   16.8044    9.7020    0.0000 C   0  0  0  0  0  0  0  0  0  0  0  0
   18.1380   10.4720    0.0000 C   0  0  0  0  0  0  0  0  0  0  0  0
   16.8044    8.1620    0.0000 C   0  0  0  0  0  0  0  0  0  0  0  0
   19.4717    9.7020    0.0000 C   0  0  0  0  0  0  0  0  0  0  0  0
   18.1380    7.3920    0.0000 C   0  0  0  0  0  0  0  0  0  0  0  0
   19.4717    8.1620    0.0000 C   0  0  0  0  0  0  0  0  0  0  0  0
    6.6684    0.7700    0.0000 C   0  0  0  0  0  0  0  0  0  0  0  0
    5.3347    0.0000    0.0000 C   0  0  0  0  0  0  0  0  0  0  0  0
    6.6684    2.3100    0.0000 C   0  0  0  0  0  0  0  0  0  0  0  0
    4.0010    0.7700    0.0000 C   0  0  0  0  0  0  0  0  0  0  0  0
    5.3347    3.0800    0.0000 C   0  0  0  0  0  0  0  0  0  0  0  0
    4.0010    2.3100    0.0000 C   0  0  0  0  0  0  0  0  0  0  0  0
   14.8314    3.8584    0.0000 H   0  0  0  0  0  0  0  0  0  0  0  0
    8.0021    6.1600    0.0000 H   0  0  0  0  0  0  0  0  0  0  0  0
  1 32  2  0  0  0  0
  2 34  2  0  0  0  0
 36  3  1  1  0  0  0
  3 57  1  0  0  0  0
  4  5  1  0  0  0  0
 40  4  1  6  0  0  0
  5  6  1  0  0  0  0
  5  7  1  0  0  0  0
  8 41  2  0  0  0  0
  9 42  2  0  0  0  0
 10 11  1  0  0  0  0
 10 12  1  0  0  0  0
 43 10  1  1  0  0  0
 46 13  1  1  0  0  0
 13 63  1  0  0  0  0
 14 47  2  0  0  0  0
 15 48  2  0  0  0  0
 16 17  1  0  0  0  0
 49 16  1  1  0  0  0
 17 18  1  0  0  0  0
 17 19  1  0  0  0  0
 20 21  1  0  0  0  0
 20 22  1  6  0  0  0
 20 52  1  0  0  0  0
 21 23  1  0  0  0  0
 24 53  2  0  0  0  0
 25 54  2  0  0  0  0
 26 27  1  0  0  0  0
 55 26  1  1  0  0  0
 27 28  1  0  0  0  0
 28 29  1  0  0  0  0
 30 31  1  0  0  0  0
 30 32  1  0  0  0  0
 30 33  1  0  0  0  0
 31 34  1  0  0  0  0
 31 35  1  0  0  0  0
 31 69  1  6  0  0  0
 32 36  1  0  0  0  0
 33 37  1  0  0  0  0
 34 38  1  0  0  0  0
 35 37  1  0  0  0  0
 36 39  1  0  0  0  0
 38 40  1  0  0  0  0
 39 41  1  0  0  0  0
 40 42  1  0  0  0  0
 41 43  1  0  0  0  0
 42 44  1  0  0  0  0
 43 45  1  0  0  0  0
 44 46  1  0  0  0  0
 45 47  1  0  0  0  0
 46 48  1  0  0  0  0
 47 49  1  0  0  0  0
 48 50  1  0  0  0  0
 49 51  1  0  0  0  0
 50 52  1  0  0  0  0
 51 53  1  0  0  0  0
 52 54  1  0  0  0  0
 52 70  1  1  0  0  0
 53 55  1  0  0  0  0
 54 56  1  0  0  0  0
 55 56  1  0  0  0  0
 57 58  2  0  0  0  0
 57 59  1  0  0  0  0
 58 60  1  0  0  0  0
 59 61  2  0  0  0  0
 60 62  2  0  0  0  0
 61 62  1  0  0  0  0
 63 64  2  0  0  0  0
 63 65  1  0  0  0  0
 64 66  1  0  0  0  0
 65 67  2  0  0  0  0
 66 68  2  0  0  0  0
 67 68  1  0  0  0  0
M  END
> <cas.rn>
343329-77-1

> <cas.index.name>
Cyclo(L-isoleucyl-L-methionyl-L-leucyl-L-valyl-L-phenylalanyl-L-prolyl-L-leucyl-L-phenylalanyl)

> <molecular.formula>
C51H76N8O8S

> <molecular.weight>
961.27

> <boiling.point.predicted>
1232.5±65.0 °C    Press: 760 Torr

> <density.predicted>
1.21±0.1 g/cm3    Temp: 20 °C; Press: 760 Torr

> <pka.predicted>
13.05±0.70    Most Acidic Temp: 25 °C

$$$$
